../input/fau-1-traj_step100.xyz
1
# a comment
35.4166 30.6717 194.1887617399 1 1 0
46.3763 147.8124617399
6
144 3
67.06 0.4374
15.04 0.1578
57.12 0.1848
144 1
86.81 -0.78
1344 3
15.04 0.269
12.01 0.129
# another comment
14.01 -0.398
2232 1
12.01 0
2232 1
#a third comment
12.01 0
842 1
12.01 0
1 2 4 5 # NOT A COMMENT
1
3
6
5000
0.001
20
1 1 4 1
1 2 4 1
1 3 4 1
2 1 4 1
3 1 4 1
3 3 4 1
1 1 5 1
1 2 5 1
1 3 5 1
2 1 5 1
3 1 5 1
3 3 5 1
1 1 2 1
1 3 2 1
1 1 3 1
1 1 3 3
1 3 3 1
1 3 3 3
2 1 3 1
2 1 3 3
